<?xml version="1.0" encoding="utf-8"?>

<!-- generated on 01/03/14 16:20:21 by SUMO netgenerate Version 0.19.0
<?xml version="1.0" encoding="UTF-8"?>

<configuration xmlns:xsi="http://www.w3.org/2001/XMLSchema-instance" xsi:noNamespaceSchemaLocation="http://sumo-sim.org/xsd/netgenerateConfiguration.xsd">

    <random_network>
        <rand value="true"/>
        <rand.iterations value="10"/>
        <rand.max-distance value="500"/>
    </random_network>

    <output>
        <output-file value="./config/random.net.xml"/>
    </output>

    <processing>
        <no-turnarounds value="true"/>
    </processing>

    <random_number>
        <random value="true"/>
    </random_number>

</configuration>
-->

<net version="0.13" xmlns:xsi="http://www.w3.org/2001/XMLSchema-instance" xsi:noNamespaceSchemaLocation="http://sumo-sim.org/xsd/net_file.xsd">

  <location netOffset="130.16,1034.31" convBoundary="0.00,0.00,1011.62,1183.71" origBoundary="-130.16,-1034.31,881.46,149.40" projParameter="!"/>

  <edge id=":1_0" function="internal">
    <lane id=":1_0_0" index="0" speed="13.90" length="5.44" shape="131.08,1039.40 130.15,1038.08 129.12,1037.24 127.96,1036.89 126.68,1037.04"/>
  </edge>
  <edge id=":1_1" function="internal">
    <lane id=":1_1_0" index="0" speed="13.90" length="12.19" shape="131.08,1039.40 129.66,1036.42 128.88,1033.76 128.55,1030.99 128.46,1027.66"/>
  </edge>
  <edge id=":1_2" function="internal">
    <lane id=":1_2_0" index="0" speed="13.90" length="11.99" shape="131.08,1039.40 130.15,1036.63 130.57,1034.12 132.32,1031.88 135.42,1029.90"/>
  </edge>
  <edge id=":1_3" function="internal">
    <lane id=":1_3_0" index="0" speed="13.90" length="6.51" shape="136.87,1032.87 135.03,1033.99 133.93,1035.19 133.58,1036.46 133.97,1037.82"/>
  </edge>
  <edge id=":1_4" function="internal">
    <lane id=":1_4_0" index="0" speed="13.90" length="11.03" shape="136.87,1032.87 134.06,1034.25 131.89,1035.25 129.67,1036.11 126.68,1037.04"/>
  </edge>
  <edge id=":1_5" function="internal">
    <lane id=":1_5_0" index="0" speed="13.90" length="7.84" shape="136.87,1032.87 133.22,1034.07 130.60,1033.60 129.81,1032.53"/>
  </edge>
  <edge id=":1_12" function="internal">
    <lane id=":1_12_0" index="0" speed="13.90" length="5.17" shape="129.81,1032.53 129.01,1031.46 128.46,1027.66"/>
  </edge>
  <edge id=":1_6" function="internal">
    <lane id=":1_6_0" index="0" speed="13.90" length="5.66" shape="131.76,1027.63 132.00,1029.29 132.69,1030.22 133.83,1030.43 135.42,1029.90"/>
  </edge>
  <edge id=":1_7" function="internal">
    <lane id=":1_7_0" index="0" speed="13.90" length="10.60" shape="131.76,1027.63 131.79,1030.72 131.98,1032.96 132.62,1035.08 133.97,1037.82"/>
  </edge>
  <edge id=":1_8" function="internal">
    <lane id=":1_8_0" index="0" speed="13.90" length="11.52" shape="131.76,1027.63 131.47,1031.19 130.52,1033.94 128.93,1035.89 126.68,1037.04"/>
  </edge>
  <edge id=":1_9" function="internal">
    <lane id=":1_9_0" index="0" speed="13.90" length="7.24" shape="125.76,1033.87 126.96,1033.18 127.81,1031.92 128.31,1030.08 128.46,1027.66"/>
  </edge>
  <edge id=":1_10" function="internal">
    <lane id=":1_10_0" index="0" speed="13.90" length="10.47" shape="125.76,1033.87 128.66,1032.97 130.71,1032.18 132.69,1031.25 135.42,1029.90"/>
  </edge>
  <edge id=":1_11" function="internal">
    <lane id=":1_11_0" index="0" speed="13.90" length="6.65" shape="125.76,1033.87 128.23,1033.55 130.42,1034.10 131.94,1035.23"/>
  </edge>
  <edge id=":1_13" function="internal">
    <lane id=":1_13_0" index="0" speed="13.90" length="3.31" shape="131.94,1035.23 132.33,1035.52 133.97,1037.82"/>
  </edge>
  <edge id=":14_0" function="internal">
    <lane id=":14_0_0" index="0" speed="13.90" length="2.42" shape="260.71,971.78 258.86,973.34"/>
  </edge>
  <edge id=":14_1" function="internal">
    <lane id=":14_1_0" index="0" speed="13.90" length="0.79" shape="257.42,970.38 258.02,969.87"/>
  </edge>
  <edge id=":40_0" function="internal">
    <lane id=":40_0_0" index="0" speed="13.90" length="0.76" shape="547.21,569.55 546.64,570.04"/>
  </edge>
  <edge id=":40_1" function="internal">
    <lane id=":40_1_0" index="0" speed="13.90" length="2.32" shape="543.95,568.13 545.71,566.61"/>
  </edge>
  <edge id=":83_0" function="internal">
    <lane id=":83_0_0" index="0" speed="13.90" length="8.84" shape="821.66,436.79 819.54,434.34 817.67,432.77 816.05,432.08 814.67,432.29"/>
  </edge>
  <edge id=":83_1" function="internal">
    <lane id=":83_1_0" index="0" speed="13.90" length="13.74" shape="821.66,436.79 819.49,433.92 817.67,431.10 816.37,428.09 815.74,424.64"/>
  </edge>
  <edge id=":83_2" function="internal">
    <lane id=":83_2_0" index="0" speed="13.90" length="15.66" shape="821.66,436.79 819.13,432.56 819.08,429.66 821.52,428.08 826.44,427.82"/>
  </edge>
  <edge id=":83_3" function="internal">
    <lane id=":83_3_0" index="0" speed="13.90" length="6.39" shape="826.22,431.11 824.21,431.22 823.22,431.86 823.24,433.05 824.27,434.77"/>
  </edge>
  <edge id=":83_4" function="internal">
    <lane id=":83_4_0" index="0" speed="13.90" length="11.82" shape="826.22,431.11 822.94,430.84 820.24,430.72 817.65,431.09 814.67,432.29"/>
  </edge>
  <edge id=":83_5" function="internal">
    <lane id=":83_5_0" index="0" speed="13.90" length="9.71" shape="826.22,431.11 821.77,430.46 818.54,429.16 817.30,427.96"/>
  </edge>
  <edge id=":83_12" function="internal">
    <lane id=":83_12_0" index="0" speed="13.90" length="3.76" shape="817.30,427.96 816.53,427.23 815.74,424.64"/>
  </edge>
  <edge id=":83_6" function="internal">
    <lane id=":83_6_0" index="0" speed="13.90" length="8.72" shape="819.04,424.44 819.56,425.74 820.97,426.74 823.27,427.43 826.44,427.82"/>
  </edge>
  <edge id=":83_7" function="internal">
    <lane id=":83_7_0" index="0" speed="13.90" length="11.84" shape="819.04,424.44 819.55,427.61 820.62,430.00 822.21,432.19 824.27,434.77"/>
  </edge>
  <edge id=":83_8" function="internal">
    <lane id=":83_8_0" index="0" speed="13.90" length="9.55" shape="819.04,424.44 818.89,426.97 818.11,429.12 816.70,430.89 814.67,432.29"/>
  </edge>
  <edge id=":83_9" function="internal">
    <lane id=":83_9_0" index="0" speed="13.90" length="5.71" shape="813.16,429.35 814.37,428.52 815.20,427.46 815.66,426.17 815.74,424.64"/>
  </edge>
  <edge id=":83_10" function="internal">
    <lane id=":83_10_0" index="0" speed="13.90" length="13.55" shape="813.16,429.35 816.41,428.10 819.60,427.61 822.88,427.60 826.44,427.82"/>
  </edge>
  <edge id=":83_11" function="internal">
    <lane id=":83_11_0" index="0" speed="13.90" length="7.65" shape="813.16,429.35 815.72,428.73 818.42,429.43 820.24,430.72"/>
  </edge>
  <edge id=":83_13" function="internal">
    <lane id=":83_13_0" index="0" speed="13.90" length="5.74" shape="820.24,430.72 821.27,431.45 824.27,434.77"/>
  </edge>

  <edge id="-105" from="104" to="83" priority="-1">
    <lane id="-105_0" index="0" speed="13.90" length="425.33" shape="793.15,-0.10 819.04,424.44"/>
  </edge>
  <edge id="-15" from="14" to="1" priority="-1">
    <lane id="-15_0" index="0" speed="13.90" length="135.74" shape="258.86,973.34 136.87,1032.87"/>
  </edge>
  <edge id="-19" from="18" to="1" priority="-1">
    <lane id="-19_0" index="0" speed="13.90" length="217.92" shape="130.08,809.72 131.76,1027.63"/>
  </edge>
  <edge id="-3" from="2" to="1" priority="-1">
    <lane id="-3_0" index="0" speed="13.90" length="165.45" shape="210.58,1184.50 131.08,1039.40"/>
  </edge>
  <edge id="-41" from="40" to="14" priority="-1">
    <lane id="-41_0" index="0" speed="13.90" length="493.11" shape="546.64,570.04 260.71,971.78"/>
  </edge>
  <edge id="-5" from="4" to="1" priority="-1">
    <lane id="-5_0" index="0" speed="13.90" length="131.46" shape="-0.46,1070.62 125.76,1033.87"/>
  </edge>
  <edge id="-84" from="83" to="40" priority="-1">
    <lane id="-84_0" index="0" speed="13.90" length="300.62" shape="814.67,432.29 547.21,569.55"/>
  </edge>
  <edge id="-91" from="90" to="83" priority="-1">
    <lane id="-91_0" index="0" speed="13.90" length="185.68" shape="1011.51,443.17 826.22,431.11"/>
  </edge>
  <edge id="-95" from="94" to="83" priority="-1">
    <lane id="-95_0" index="0" speed="13.90" length="207.61" shape="948.46,601.18 821.66,436.79"/>
  </edge>
  <edge id="105" from="83" to="104" priority="-1">
    <lane id="105_0" index="0" speed="13.90" length="425.33" shape="815.74,424.64 789.86,0.10"/>
  </edge>
  <edge id="15" from="1" to="14" priority="-1">
    <lane id="15_0" index="0" speed="13.90" length="135.74" shape="135.42,1029.90 257.42,970.38"/>
  </edge>
  <edge id="19" from="1" to="18" priority="-1">
    <lane id="19_0" index="0" speed="13.90" length="217.92" shape="128.46,1027.66 126.79,809.74"/>
  </edge>
  <edge id="3" from="1" to="2" priority="-1">
    <lane id="3_0" index="0" speed="13.90" length="165.45" shape="133.97,1037.82 213.48,1182.91"/>
  </edge>
  <edge id="41" from="14" to="40" priority="-1">
    <lane id="41_0" index="0" speed="13.90" length="493.11" shape="258.02,969.87 543.95,568.13"/>
  </edge>
  <edge id="5" from="1" to="4" priority="-1">
    <lane id="5_0" index="0" speed="13.90" length="131.46" shape="126.68,1037.04 0.46,1073.78"/>
  </edge>
  <edge id="84" from="40" to="83" priority="-1">
    <lane id="84_0" index="0" speed="13.90" length="300.62" shape="545.71,566.61 813.16,429.35"/>
  </edge>
  <edge id="91" from="83" to="90" priority="-1">
    <lane id="91_0" index="0" speed="13.90" length="185.68" shape="826.44,427.82 1011.73,439.88"/>
  </edge>
  <edge id="95" from="83" to="94" priority="-1">
    <lane id="95_0" index="0" speed="13.90" length="207.61" shape="824.27,434.77 951.08,599.16"/>
  </edge>

  <junction id="1" type="priority" x="130.16" y="1034.31" incLanes="-3_0 -15_0 -19_0 -5_0" intLanes=":1_0_0 :1_1_0 :1_2_0 :1_3_0 :1_4_0 :1_12_0 :1_6_0 :1_7_0 :1_8_0 :1_9_0 :1_10_0 :1_13_0" shape="129.67,1040.17 135.37,1037.05 137.57,1034.31 134.72,1028.46 133.36,1027.62 126.86,1027.67 125.31,1032.33 127.13,1038.57">
    <request index="0" response="000000010000" foes="000100010000" cont="0"/>
    <request index="1" response="111000110000" foes="111100110000" cont="0"/>
    <request index="2" response="110011110000" foes="110011110000" cont="0"/>
    <request index="3" response="000000000000" foes="100010000000" cont="0"/>
    <request index="4" response="000000000000" foes="100110000111" cont="0"/>
    <request index="5" response="011000000000" foes="011110000110" cont="1"/>
    <request index="6" response="010000000000" foes="010000000100" cont="0"/>
    <request index="7" response="110000111000" foes="110000111100" cont="0"/>
    <request index="8" response="110000110011" foes="110000110011" cont="0"/>
    <request index="9" response="000000000000" foes="000000100010" cont="0"/>
    <request index="10" response="000000000000" foes="000111100110" cont="0"/>
    <request index="11" response="000000011000" foes="000110011110" cont="1"/>
  </junction>
  <junction id="104" type="dead_end" x="791.51" y="0.00" incLanes="105_0" intLanes="" shape="791.56,-0.00 794.75,-0.20 788.26,0.20 791.46,0.00"/>
  <junction id="14" type="priority" x="258.88" y="971.50" incLanes="-41_0 15_0" intLanes=":14_0_0 :14_1_0" shape="262.01,972.71 256.71,968.94 259.56,974.78">
    <request index="0" response="00" foes="00" cont="0"/>
    <request index="1" response="00" foes="00" cont="0"/>
  </junction>
  <junction id="18" type="dead_end" x="128.44" y="809.73" incLanes="19_0" intLanes="" shape="128.49,809.73 131.68,809.71 125.19,809.76 128.39,809.73"/>
  <junction id="2" type="dead_end" x="212.03" y="1183.71" incLanes="3_0" intLanes="" shape="211.99,1183.73 209.18,1185.27 214.88,1182.14 212.08,1183.68"/>
  <junction id="4" type="dead_end" x="0.00" y="1072.20" incLanes="5_0" intLanes="" shape="-0.01,1072.15 -0.91,1069.08 0.91,1075.32 0.01,1072.25"/>
  <junction id="40" type="priority" x="545.76" y="568.44" incLanes="-84_0 41_0" intLanes=":40_0_0 :40_1_0" shape="547.94,570.97 544.98,565.19 542.65,567.20 547.94,570.97">
    <request index="0" response="00" foes="00" cont="0"/>
    <request index="1" response="00" foes="00" cont="0"/>
  </junction>
  <junction id="83" type="priority" x="817.65" y="428.90" incLanes="-95_0 -91_0 -105_0 84_0" intLanes=":83_0_0 :83_1_0 :83_2_0 :83_3_0 :83_4_0 :83_12_0 :83_6_0 :83_7_0 :83_8_0 :83_9_0 :83_10_0 :83_13_0" shape="820.39,437.77 825.54,433.80 826.12,432.71 826.54,426.22 820.63,424.34 814.15,424.74 812.43,427.93 815.40,433.71">
    <request index="0" response="000000010000" foes="000100010000" cont="0"/>
    <request index="1" response="111000110000" foes="111100110000" cont="0"/>
    <request index="2" response="110011110000" foes="110011110000" cont="0"/>
    <request index="3" response="000000000000" foes="100010000000" cont="0"/>
    <request index="4" response="000000000000" foes="100110000111" cont="0"/>
    <request index="5" response="011000000000" foes="011110000110" cont="1"/>
    <request index="6" response="010000000000" foes="010000000100" cont="0"/>
    <request index="7" response="110000111000" foes="110000111100" cont="0"/>
    <request index="8" response="110000110011" foes="110000110011" cont="0"/>
    <request index="9" response="000000000000" foes="000000100010" cont="0"/>
    <request index="10" response="000000000000" foes="000111100110" cont="0"/>
    <request index="11" response="000000011000" foes="000110011110" cont="1"/>
  </junction>
  <junction id="90" type="dead_end" x="1011.62" y="441.53" incLanes="91_0" intLanes="" shape="1011.62,441.58 1011.41,444.77 1011.83,438.28 1011.62,441.48"/>
  <junction id="94" type="dead_end" x="949.77" y="600.17" incLanes="95_0" intLanes="" shape="949.73,600.20 947.20,602.16 952.34,598.19 949.81,600.14"/>

  <junction id=":1_12_0" type="internal" x="129.81" y="1032.53" incLanes=":1_5_0 -5_0" intLanes=":1_1_0 :1_2_0 :1_7_0 :1_8_0 :1_9_0 :1_10_0"/>
  <junction id=":1_13_0" type="internal" x="131.94" y="1035.23" incLanes=":1_11_0 -15_0" intLanes=":1_1_0 :1_2_0 :1_3_0 :1_4_0 :1_7_0 :1_8_0"/>
  <junction id=":83_12_0" type="internal" x="817.30" y="427.96" incLanes=":83_5_0 84_0" intLanes=":83_1_0 :83_2_0 :83_7_0 :83_8_0 :83_9_0 :83_10_0"/>
  <junction id=":83_13_0" type="internal" x="820.24" y="430.72" incLanes=":83_11_0 -91_0" intLanes=":83_1_0 :83_2_0 :83_3_0 :83_4_0 :83_7_0 :83_8_0"/>

  <connection from="-105" to="91" fromLane="0" toLane="0" via=":83_6_0" dir="r" state="m"/>
  <connection from="-105" to="95" fromLane="0" toLane="0" via=":83_7_0" dir="s" state="m"/>
  <connection from="-105" to="-84" fromLane="0" toLane="0" via=":83_8_0" dir="l" state="m"/>
  <connection from="-15" to="3" fromLane="0" toLane="0" via=":1_3_0" dir="r" state="M"/>
  <connection from="-15" to="5" fromLane="0" toLane="0" via=":1_4_0" dir="s" state="M"/>
  <connection from="-15" to="19" fromLane="0" toLane="0" via=":1_5_0" dir="l" state="m"/>
  <connection from="-19" to="15" fromLane="0" toLane="0" via=":1_6_0" dir="r" state="m"/>
  <connection from="-19" to="3" fromLane="0" toLane="0" via=":1_7_0" dir="s" state="m"/>
  <connection from="-19" to="5" fromLane="0" toLane="0" via=":1_8_0" dir="l" state="m"/>
  <connection from="-3" to="5" fromLane="0" toLane="0" via=":1_0_0" dir="r" state="m"/>
  <connection from="-3" to="19" fromLane="0" toLane="0" via=":1_1_0" dir="s" state="m"/>
  <connection from="-3" to="15" fromLane="0" toLane="0" via=":1_2_0" dir="l" state="m"/>
  <connection from="-41" to="-15" fromLane="0" toLane="0" via=":14_0_0" dir="s" state="M"/>
  <connection from="-5" to="19" fromLane="0" toLane="0" via=":1_9_0" dir="r" state="M"/>
  <connection from="-5" to="15" fromLane="0" toLane="0" via=":1_10_0" dir="s" state="M"/>
  <connection from="-5" to="3" fromLane="0" toLane="0" via=":1_11_0" dir="l" state="m"/>
  <connection from="-84" to="-41" fromLane="0" toLane="0" via=":40_0_0" dir="s" state="M"/>
  <connection from="-91" to="95" fromLane="0" toLane="0" via=":83_3_0" dir="r" state="M"/>
  <connection from="-91" to="-84" fromLane="0" toLane="0" via=":83_4_0" dir="s" state="M"/>
  <connection from="-91" to="105" fromLane="0" toLane="0" via=":83_5_0" dir="l" state="m"/>
  <connection from="-95" to="-84" fromLane="0" toLane="0" via=":83_0_0" dir="r" state="m"/>
  <connection from="-95" to="105" fromLane="0" toLane="0" via=":83_1_0" dir="s" state="m"/>
  <connection from="-95" to="91" fromLane="0" toLane="0" via=":83_2_0" dir="l" state="m"/>
  <connection from="15" to="41" fromLane="0" toLane="0" via=":14_1_0" dir="s" state="M"/>
  <connection from="41" to="84" fromLane="0" toLane="0" via=":40_1_0" dir="s" state="M"/>
  <connection from="84" to="105" fromLane="0" toLane="0" via=":83_9_0" dir="r" state="M"/>
  <connection from="84" to="91" fromLane="0" toLane="0" via=":83_10_0" dir="s" state="M"/>
  <connection from="84" to="95" fromLane="0" toLane="0" via=":83_11_0" dir="l" state="m"/>

  <connection from=":1_0" to="5" fromLane="0" toLane="0" dir="s" state="M"/>
  <connection from=":1_1" to="19" fromLane="0" toLane="0" dir="s" state="M"/>
  <connection from=":1_2" to="15" fromLane="0" toLane="0" dir="s" state="M"/>
  <connection from=":1_3" to="3" fromLane="0" toLane="0" dir="s" state="M"/>
  <connection from=":1_4" to="5" fromLane="0" toLane="0" dir="s" state="M"/>
  <connection from=":1_5" to="19" fromLane="0" toLane="0" via=":1_12_0" dir="s" state="M"/>
  <connection from=":1_12" to="19" fromLane="0" toLane="0" dir="s" state="M"/>
  <connection from=":1_6" to="15" fromLane="0" toLane="0" dir="s" state="M"/>
  <connection from=":1_7" to="3" fromLane="0" toLane="0" dir="s" state="M"/>
  <connection from=":1_8" to="5" fromLane="0" toLane="0" dir="s" state="M"/>
  <connection from=":1_9" to="19" fromLane="0" toLane="0" dir="s" state="M"/>
  <connection from=":1_10" to="15" fromLane="0" toLane="0" dir="s" state="M"/>
  <connection from=":1_11" to="3" fromLane="0" toLane="0" via=":1_13_0" dir="s" state="M"/>
  <connection from=":1_13" to="3" fromLane="0" toLane="0" dir="s" state="M"/>
  <connection from=":14_0" to="-15" fromLane="0" toLane="0" dir="s" state="M"/>
  <connection from=":14_1" to="41" fromLane="0" toLane="0" dir="s" state="M"/>
  <connection from=":40_0" to="-41" fromLane="0" toLane="0" dir="s" state="M"/>
  <connection from=":40_1" to="84" fromLane="0" toLane="0" dir="s" state="M"/>
  <connection from=":83_0" to="-84" fromLane="0" toLane="0" dir="s" state="M"/>
  <connection from=":83_1" to="105" fromLane="0" toLane="0" dir="s" state="M"/>
  <connection from=":83_2" to="91" fromLane="0" toLane="0" dir="s" state="M"/>
  <connection from=":83_3" to="95" fromLane="0" toLane="0" dir="s" state="M"/>
  <connection from=":83_4" to="-84" fromLane="0" toLane="0" dir="s" state="M"/>
  <connection from=":83_5" to="105" fromLane="0" toLane="0" via=":83_12_0" dir="s" state="M"/>
  <connection from=":83_12" to="105" fromLane="0" toLane="0" dir="s" state="M"/>
  <connection from=":83_6" to="91" fromLane="0" toLane="0" dir="s" state="M"/>
  <connection from=":83_7" to="95" fromLane="0" toLane="0" dir="s" state="M"/>
  <connection from=":83_8" to="-84" fromLane="0" toLane="0" dir="s" state="M"/>
  <connection from=":83_9" to="105" fromLane="0" toLane="0" dir="s" state="M"/>
  <connection from=":83_10" to="91" fromLane="0" toLane="0" dir="s" state="M"/>
  <connection from=":83_11" to="95" fromLane="0" toLane="0" via=":83_13_0" dir="s" state="M"/>
  <connection from=":83_13" to="95" fromLane="0" toLane="0" dir="s" state="M"/>

</net>
