<?xml version="1.0" encoding="utf-8"?>

<!-- generated on 01/03/14 16:25:15 by SUMO netgenerate Version 0.19.0
<?xml version="1.0" encoding="UTF-8"?>

<configuration xmlns:xsi="http://www.w3.org/2001/XMLSchema-instance" xsi:noNamespaceSchemaLocation="http://sumo-sim.org/xsd/netgenerateConfiguration.xsd">

    <random_network>
        <rand value="true"/>
        <rand.iterations value="10"/>
        <rand.max-distance value="500"/>
    </random_network>

    <output>
        <output-file value="./config/random.net.xml"/>
    </output>

    <processing>
        <no-turnarounds value="true"/>
    </processing>

    <random_number>
        <random value="true"/>
    </random_number>

</configuration>
-->

<net version="0.13" xmlns:xsi="http://www.w3.org/2001/XMLSchema-instance" xsi:noNamespaceSchemaLocation="http://sumo-sim.org/xsd/net_file.xsd">

  <location netOffset="691.84,628.39" convBoundary="0.00,0.00,894.84,989.90" origBoundary="-691.84,-628.39,203.00,361.50" projParameter="!"/>

  <edge id=":1_0" function="internal">
    <lane id=":1_0_0" index="0" speed="13.90" length="11.54" shape="697.97,635.42 695.50,633.26 693.48,631.56 691.25,630.44 688.16,630.02"/>
  </edge>
  <edge id=":1_1" function="internal">
    <lane id=":1_1_0" index="0" speed="13.90" length="16.28" shape="697.97,635.42 694.62,632.08 692.69,628.60 692.18,624.96 693.10,621.17"/>
  </edge>
  <edge id=":1_2" function="internal">
    <lane id=":1_2_0" index="0" speed="13.90" length="16.28" shape="697.97,635.42 694.32,631.74 693.56,628.88 695.70,626.83 700.74,625.60"/>
  </edge>
  <edge id=":1_3" function="internal">
    <lane id=":1_3_0" index="0" speed="13.90" length="6.58" shape="701.15,628.88 699.12,629.37 698.25,630.20 698.56,631.36 700.04,632.84"/>
  </edge>
  <edge id=":1_4" function="internal">
    <lane id=":1_4_0" index="0" speed="13.90" length="13.06" shape="701.15,628.88 697.73,629.33 694.67,629.70 691.60,629.94 688.16,630.02"/>
  </edge>
  <edge id=":1_5" function="internal">
    <lane id=":1_5_0" index="0" speed="13.90" length="9.48" shape="701.15,628.88 696.17,628.96 693.17,627.71 692.71,626.55"/>
  </edge>
  <edge id=":1_12" function="internal">
    <lane id=":1_12_0" index="0" speed="13.90" length="5.60" shape="692.71,626.55 692.15,625.11 693.10,621.17"/>
  </edge>
  <edge id=":1_6" function="internal">
    <lane id=":1_6_0" index="0" speed="13.90" length="7.32" shape="696.14,622.46 695.81,624.13 696.46,625.21 698.10,625.70 700.74,625.60"/>
  </edge>
  <edge id=":1_7" function="internal">
    <lane id=":1_7_0" index="0" speed="13.90" length="11.98" shape="696.14,622.46 695.53,625.14 695.97,627.77 697.47,630.33 700.04,632.84"/>
  </edge>
  <edge id=":1_8" function="internal">
    <lane id=":1_8_0" index="0" speed="13.90" length="11.63" shape="696.14,622.46 694.44,625.78 692.54,628.14 690.45,629.56 688.16,630.02"/>
  </edge>
  <edge id=":1_9" function="internal">
    <lane id=":1_9_0" index="0" speed="13.90" length="7.76" shape="688.18,626.72 689.45,626.38 690.70,625.34 691.91,623.60 693.10,621.17"/>
  </edge>
  <edge id=":1_10" function="internal">
    <lane id=":1_10_0" index="0" speed="13.90" length="12.62" shape="688.18,626.72 691.56,626.65 694.47,626.41 697.39,626.05 700.74,625.60"/>
  </edge>
  <edge id=":1_11" function="internal">
    <lane id=":1_11_0" index="0" speed="13.90" length="13.63" shape="688.18,626.72 691.60,627.25 694.52,628.62 697.24,630.57 700.04,632.84"/>
  </edge>
  <edge id=":2_0" function="internal">
    <lane id=":2_0_0" index="0" speed="13.90" length="9.24" shape="259.08,626.83 250.37,629.91"/>
  </edge>
  <edge id=":2_1" function="internal">
    <lane id=":2_1_0" index="0" speed="13.90" length="10.94" shape="259.08,626.83 256.04,626.52 253.88,625.69 251.85,624.39 249.18,622.70"/>
  </edge>
  <edge id=":2_2" function="internal">
    <lane id=":2_2_0" index="0" speed="13.90" length="9.06" shape="250.84,619.84 259.11,623.53"/>
  </edge>
  <edge id=":2_3" function="internal">
    <lane id=":2_3_0" index="0" speed="13.90" length="14.46" shape="250.84,619.84 254.36,622.53 255.46,625.10 254.13,627.56 250.37,629.91"/>
  </edge>
  <edge id=":2_4" function="internal">
    <lane id=":2_4_0" index="0" speed="13.90" length="6.06" shape="248.99,626.92 250.56,625.93 251.12,624.90 250.66,623.82 249.18,622.70"/>
  </edge>
  <edge id=":2_5" function="internal">
    <lane id=":2_5_0" index="0" speed="13.90" length="10.83" shape="248.99,626.92 251.78,625.50 253.88,624.42 256.06,623.74 259.11,623.53"/>
  </edge>
  <edge id=":4_0" function="internal">
    <lane id=":4_0_0" index="0" speed="13.90" length="5.65" shape="826.31,743.01 825.85,741.49 825.02,740.67 823.82,740.57 822.25,741.18"/>
  </edge>
  <edge id=":4_1" function="internal">
    <lane id=":4_1_0" index="0" speed="13.90" length="10.87" shape="826.31,743.01 825.73,739.95 824.87,737.81 823.41,736.01 821.04,733.97"/>
  </edge>
  <edge id=":4_2" function="internal">
    <lane id=":4_2_0" index="0" speed="13.90" length="12.37" shape="826.31,743.01 825.96,739.68 826.07,736.83 826.73,734.07 828.06,731.01"/>
  </edge>
  <edge id=":4_3" function="internal">
    <lane id=":4_3_0" index="0" speed="13.90" length="10.41" shape="831.01,732.50 829.73,735.26 829.17,737.34 829.18,739.51 829.58,742.54"/>
  </edge>
  <edge id=":4_4" function="internal">
    <lane id=":4_4_0" index="0" speed="13.90" length="12.56" shape="831.01,732.50 829.30,735.40 827.42,737.61 825.15,739.44 822.25,741.18"/>
  </edge>
  <edge id=":4_5" function="internal">
    <lane id=":4_5_0" index="0" speed="13.90" length="8.11" shape="831.01,732.50 829.11,735.12 826.81,736.23 824.51,735.90"/>
  </edge>
  <edge id=":4_12" function="internal">
    <lane id=":4_12_0" index="0" speed="13.90" length="4.00" shape="824.51,735.90 824.12,735.85 821.04,733.97"/>
  </edge>
  <edge id=":4_6" function="internal">
    <lane id=":4_6_0" index="0" speed="13.90" length="5.95" shape="823.10,731.39 824.69,732.39 826.04,732.66 827.16,732.20 828.06,731.01"/>
  </edge>
  <edge id=":4_7" function="internal">
    <lane id=":4_7_0" index="0" speed="13.90" length="13.23" shape="823.10,731.39 825.66,733.76 827.53,736.28 828.81,739.15 829.58,742.54"/>
  </edge>
  <edge id=":4_8" function="internal">
    <lane id=":4_8_0" index="0" speed="13.90" length="12.64" shape="823.10,731.39 825.64,734.08 826.34,736.61 825.21,738.97 822.25,741.18"/>
  </edge>
  <edge id=":4_9" function="internal">
    <lane id=":4_9_0" index="0" speed="13.90" length="5.57" shape="820.66,738.28 821.97,737.31 822.47,736.27 822.16,735.15 821.04,733.97"/>
  </edge>
  <edge id=":4_10" function="internal">
    <lane id=":4_10_0" index="0" speed="13.90" length="10.64" shape="820.66,738.28 823.35,736.76 825.16,735.42 826.57,733.69 828.06,731.01"/>
  </edge>
  <edge id=":4_11" function="internal">
    <lane id=":4_11_0" index="0" speed="13.90" length="7.05" shape="820.66,738.28 824.10,736.97 826.73,737.25 827.24,737.76"/>
  </edge>
  <edge id=":4_13" function="internal">
    <lane id=":4_13_0" index="0" speed="13.90" length="5.46" shape="827.24,737.76 828.56,739.10 829.58,742.54"/>
  </edge>
  <edge id=":6_0" function="internal">
    <lane id=":6_0_0" index="0" speed="13.90" length="6.28" shape="791.05,407.60 789.94,405.98 788.88,405.47 787.86,406.07 786.88,407.77"/>
  </edge>
  <edge id=":6_1" function="internal">
    <lane id=":6_1_0" index="0" speed="13.90" length="11.90" shape="791.05,407.60 789.40,404.70 788.07,402.28 787.32,399.77 787.41,396.59"/>
  </edge>
  <edge id=":6_2" function="internal">
    <lane id=":6_2_0" index="0" speed="13.90" length="9.55" shape="790.67,397.11 793.98,406.07"/>
  </edge>
  <edge id=":6_3" function="internal">
    <lane id=":6_3_0" index="0" speed="13.90" length="11.35" shape="790.67,397.11 790.02,400.21 789.21,402.56 788.19,404.85 786.88,407.77"/>
  </edge>
  <edge id=":6_4" function="internal">
    <lane id=":6_4_0" index="0" speed="13.90" length="10.57" shape="783.84,406.48 785.11,403.69 786.06,401.66 786.79,399.57 787.41,396.59"/>
  </edge>
  <edge id=":6_5" function="internal">
    <lane id=":6_5_0" index="0" speed="13.90" length="8.67" shape="783.84,406.48 786.21,402.35 788.69,400.90 789.63,401.35"/>
  </edge>
  <edge id=":6_6" function="internal">
    <lane id=":6_6_0" index="0" speed="13.90" length="6.60" shape="789.63,401.35 791.28,402.14 793.98,406.07"/>
  </edge>
  <edge id=":8_0" function="internal">
    <lane id=":8_0_0" index="0" speed="13.90" length="14.33" shape="893.44,596.45 894.63,599.64 894.93,603.00 894.34,606.53 892.87,610.23"/>
  </edge>
  <edge id=":8_1" function="internal">
    <lane id=":8_1_0" index="0" speed="13.90" length="9.43" shape="893.44,596.45 894.55,599.84 893.93,602.44 891.58,604.25 891.38,604.30"/>
  </edge>
  <edge id=":8_6" function="internal">
    <lane id=":8_6_0" index="0" speed="13.90" length="4.01" shape="891.38,604.30 887.49,605.28"/>
  </edge>
  <edge id=":8_2" function="internal">
    <lane id=":8_2_0" index="0" speed="13.90" length="6.60" shape="887.07,602.00 889.24,601.50 890.54,600.67 890.96,599.49 890.52,597.98"/>
  </edge>
  <edge id=":8_3" function="internal">
    <lane id=":8_3_0" index="0" speed="13.90" length="14.27" shape="887.07,602.00 891.43,602.01 893.84,603.38 894.33,606.12 892.87,610.23"/>
  </edge>
  <edge id=":8_4" function="internal">
    <lane id=":8_4_0" index="0" speed="13.90" length="6.00" shape="889.93,608.74 890.54,607.01 890.34,605.86 889.32,605.28 887.49,605.28"/>
  </edge>
  <edge id=":8_5" function="internal">
    <lane id=":8_5_0" index="0" speed="13.90" length="11.20" shape="889.93,608.74 891.11,605.80 891.60,603.03 891.41,600.42 890.52,597.98"/>
  </edge>

  <edge id="-11" from="10" to="2" priority="-1">
    <lane id="-11_0" index="0" speed="13.90" length="275.01" shape="-0.69,742.20 248.99,626.92"/>
  </edge>
  <edge id="-13" from="12" to="2" priority="-1">
    <lane id="-13_0" index="0" speed="13.90" length="145.32" shape="125.01,547.14 250.84,619.84"/>
  </edge>
  <edge id="-14" from="8" to="4" priority="-1">
    <lane id="-14_0" index="0" speed="13.90" length="137.04" shape="892.87,610.23 831.01,732.50"/>
  </edge>
  <edge id="-16" from="15" to="4" priority="-1">
    <lane id="-16_0" index="0" speed="13.90" length="249.76" shape="862.48,990.14 826.31,743.01"/>
  </edge>
  <edge id="-3" from="2" to="1" priority="-1">
    <lane id="-3_0" index="0" speed="13.90" length="429.09" shape="259.11,623.53 688.18,626.72"/>
  </edge>
  <edge id="-32" from="31" to="4" priority="-1">
    <lane id="-32_0" index="0" speed="13.90" length="241.61" shape="608.66,854.17 820.66,738.28"/>
  </edge>
  <edge id="-33" from="8" to="6" priority="-1">
    <lane id="-33_0" index="0" speed="13.90" length="214.79" shape="890.52,597.98 791.05,407.60"/>
  </edge>
  <edge id="-37" from="36" to="6" priority="-1">
    <lane id="-37_0" index="0" speed="13.90" length="401.99" shape="854.77,0.26 790.67,397.11"/>
  </edge>
  <edge id="-5" from="4" to="1" priority="-1">
    <lane id="-5_0" index="0" speed="13.90" length="157.67" shape="821.04,733.97 697.97,635.42"/>
  </edge>
  <edge id="-7" from="6" to="1" priority="-1">
    <lane id="-7_0" index="0" speed="13.90" length="233.08" shape="786.88,407.77 696.14,622.46"/>
  </edge>
  <edge id="-9" from="8" to="1" priority="-1">
    <lane id="-9_0" index="0" speed="13.90" length="187.82" shape="887.49,605.28 701.15,628.88"/>
  </edge>
  <edge id="11" from="2" to="10" priority="-1">
    <lane id="11_0" index="0" speed="13.90" length="275.01" shape="250.37,629.91 0.69,745.19"/>
  </edge>
  <edge id="13" from="2" to="12" priority="-1">
    <lane id="13_0" index="0" speed="13.90" length="145.32" shape="249.18,622.70 123.36,550.00"/>
  </edge>
  <edge id="14" from="4" to="8" priority="-1">
    <lane id="14_0" index="0" speed="13.90" length="137.04" shape="828.06,731.01 889.93,608.74"/>
  </edge>
  <edge id="16" from="4" to="15" priority="-1">
    <lane id="16_0" index="0" speed="13.90" length="249.76" shape="829.58,742.54 865.75,989.66"/>
  </edge>
  <edge id="3" from="1" to="2" priority="-1">
    <lane id="3_0" index="0" speed="13.90" length="429.09" shape="688.16,630.02 259.08,626.83"/>
  </edge>
  <edge id="32" from="4" to="31" priority="-1">
    <lane id="32_0" index="0" speed="13.90" length="241.61" shape="822.25,741.18 610.24,857.07"/>
  </edge>
  <edge id="33" from="6" to="8" priority="-1">
    <lane id="33_0" index="0" speed="13.90" length="214.79" shape="793.98,406.07 893.44,596.45"/>
  </edge>
  <edge id="37" from="6" to="36" priority="-1">
    <lane id="37_0" index="0" speed="13.90" length="401.99" shape="787.41,396.59 851.51,-0.26"/>
  </edge>
  <edge id="5" from="1" to="4" priority="-1">
    <lane id="5_0" index="0" speed="13.90" length="157.67" shape="700.04,632.84 823.10,731.39"/>
  </edge>
  <edge id="7" from="1" to="6" priority="-1">
    <lane id="7_0" index="0" speed="13.90" length="233.08" shape="693.10,621.17 783.84,406.48"/>
  </edge>
  <edge id="9" from="1" to="8" priority="-1">
    <lane id="9_0" index="0" speed="13.90" length="187.82" shape="700.74,625.60 887.07,602.00"/>
  </edge>

  <junction id="1" type="priority" x="691.84" y="628.39" incLanes="-5_0 -9_0 -7_0 -3_0" intLanes=":1_0_0 :1_1_0 :1_2_0 :1_3_0 :1_4_0 :1_12_0 :1_6_0 :1_7_0 :1_8_0 :1_9_0 :1_10_0 :1_11_0" shape="696.97,636.66 701.04,631.59 701.35,630.47 700.54,624.02 697.62,623.08 691.63,620.55 688.20,625.12 688.15,631.62">
    <request index="0" response="000000010000" foes="000100010000" cont="0"/>
    <request index="1" response="111000110000" foes="111100110000" cont="0"/>
    <request index="2" response="110011110000" foes="110011110000" cont="0"/>
    <request index="3" response="000000000000" foes="100010000000" cont="0"/>
    <request index="4" response="000000000000" foes="100110000111" cont="0"/>
    <request index="5" response="011000000000" foes="011110000110" cont="1"/>
    <request index="6" response="010000000000" foes="010000000100" cont="0"/>
    <request index="7" response="110000111000" foes="110000111100" cont="0"/>
    <request index="8" response="110000110011" foes="110000110011" cont="0"/>
    <request index="9" response="000000000000" foes="000000100010" cont="0"/>
    <request index="10" response="000000000000" foes="000111100110" cont="0"/>
    <request index="11" response="000000011000" foes="000110011110" cont="0"/>
  </junction>
  <junction id="10" type="dead_end" x="0.00" y="743.69" incLanes="11_0" intLanes="" shape="-0.02,743.65 -1.36,740.74 1.36,746.65 0.02,743.74"/>
  <junction id="12" type="dead_end" x="124.18" y="548.57" incLanes="13_0" intLanes="" shape="124.21,548.52 125.81,545.75 122.56,551.38 124.16,548.61"/>
  <junction id="15" type="dead_end" x="864.12" y="989.90" incLanes="16_0" intLanes="" shape="864.07,989.90 860.90,990.37 867.33,989.43 864.17,989.89"/>
  <junction id="2" type="priority" x="256.74" y="625.16" incLanes="3_0 -13_0 -11_0" intLanes=":2_0_0 :2_1_0 :2_2_0 :2_3_0 :2_4_0 :2_5_0" shape="259.07,628.43 259.12,621.93 251.64,618.46 248.38,624.08 248.32,625.46 251.05,631.37">
    <request index="0" response="000000" foes="001000" cont="0"/>
    <request index="1" response="110000" foes="111000" cont="0"/>
    <request index="2" response="100000" foes="100000" cont="0"/>
    <request index="3" response="100011" foes="100011" cont="0"/>
    <request index="4" response="000000" foes="000010" cont="0"/>
    <request index="5" response="000000" foes="001110" cont="0"/>
  </junction>
  <junction id="31" type="dead_end" x="609.45" y="855.62" incLanes="32_0" intLanes="" shape="609.43,855.57 607.89,852.77 611.01,858.47 609.48,855.66"/>
  <junction id="36" type="dead_end" x="853.14" y="0.00" incLanes="37_0" intLanes="" shape="853.19,0.01 856.35,0.52 849.93,-0.52 853.09,-0.01"/>
  <junction id="4" type="priority" x="827.05" y="736.67" incLanes="-16_0 -14_0 5_0 -32_0" intLanes=":4_0_0 :4_1_0 :4_2_0 :4_3_0 :4_4_0 :4_12_0 :4_6_0 :4_7_0 :4_8_0 :4_9_0 :4_10_0 :4_13_0" shape="824.73,743.24 831.16,742.30 832.43,733.23 826.63,730.29 824.10,730.15 820.04,735.22 819.89,736.88 823.01,742.58">
    <request index="0" response="000000010000" foes="000100010000" cont="0"/>
    <request index="1" response="111000110000" foes="111100110000" cont="0"/>
    <request index="2" response="110011110000" foes="110011110000" cont="0"/>
    <request index="3" response="000000000000" foes="100010000000" cont="0"/>
    <request index="4" response="000000000000" foes="100110000111" cont="0"/>
    <request index="5" response="011000000000" foes="011110000110" cont="1"/>
    <request index="6" response="010000000000" foes="010000000100" cont="0"/>
    <request index="7" response="110000111000" foes="110000111100" cont="0"/>
    <request index="8" response="110000110011" foes="110000110011" cont="0"/>
    <request index="9" response="000000000000" foes="000000100010" cont="0"/>
    <request index="10" response="000000000000" foes="000111100110" cont="0"/>
    <request index="11" response="000000011000" foes="000110011110" cont="1"/>
  </junction>
  <junction id="6" type="priority" x="788.63" y="399.40" incLanes="-33_0 -37_0 7_0" intLanes=":6_0_0 :6_1_0 :6_2_0 :6_3_0 :6_4_0 :6_6_0" shape="789.64,408.34 795.40,405.33 792.25,397.37 785.83,396.33 782.37,405.86 788.36,408.39">
    <request index="0" response="001000" foes="001000" cont="0"/>
    <request index="1" response="111000" foes="111000" cont="0"/>
    <request index="2" response="000000" foes="100000" cont="0"/>
    <request index="3" response="000000" foes="100011" cont="0"/>
    <request index="4" response="000000" foes="000010" cont="0"/>
    <request index="5" response="001100" foes="001110" cont="1"/>
  </junction>
  <junction id="8" type="priority" x="894.84" y="602.68" incLanes="33_0 9_0 14_0" intLanes=":8_0_0 :8_6_0 :8_2_0 :8_3_0 :8_4_0 :8_5_0" shape="894.86,595.71 889.10,598.72 886.87,600.42 887.69,606.86 888.50,608.01 894.30,610.95">
    <request index="0" response="000000" foes="001000" cont="0"/>
    <request index="1" response="110000" foes="111000" cont="1"/>
    <request index="2" response="100000" foes="100000" cont="0"/>
    <request index="3" response="100011" foes="100011" cont="0"/>
    <request index="4" response="000000" foes="000010" cont="0"/>
    <request index="5" response="000000" foes="001110" cont="0"/>
  </junction>

  <junction id=":1_12_0" type="internal" x="692.71" y="626.55" incLanes=":1_5_0 -3_0" intLanes=":1_1_0 :1_2_0 :1_7_0 :1_8_0 :1_9_0 :1_10_0"/>
  <junction id=":4_12_0" type="internal" x="824.51" y="735.90" incLanes=":4_5_0 -32_0" intLanes=":4_1_0 :4_2_0 :4_7_0 :4_8_0 :4_9_0 :4_10_0"/>
  <junction id=":4_13_0" type="internal" x="827.24" y="737.76" incLanes=":4_11_0 -14_0" intLanes=":4_1_0 :4_2_0 :4_3_0 :4_4_0 :4_7_0 :4_8_0"/>
  <junction id=":6_6_0" type="internal" x="789.63" y="401.35" incLanes=":6_5_0 -37_0" intLanes=":6_1_0 :6_2_0 :6_3_0"/>
  <junction id=":8_6_0" type="internal" x="891.38" y="604.30" incLanes=":8_1_0 14_0" intLanes=":8_3_0 :8_4_0 :8_5_0"/>

  <connection from="-11" to="13" fromLane="0" toLane="0" via=":2_4_0" dir="r" state="M"/>
  <connection from="-11" to="-3" fromLane="0" toLane="0" via=":2_5_0" dir="s" state="M"/>
  <connection from="-13" to="-3" fromLane="0" toLane="0" via=":2_2_0" dir="s" state="m"/>
  <connection from="-13" to="11" fromLane="0" toLane="0" via=":2_3_0" dir="l" state="m"/>
  <connection from="-14" to="16" fromLane="0" toLane="0" via=":4_3_0" dir="s" state="M"/>
  <connection from="-14" to="32" fromLane="0" toLane="0" via=":4_4_0" dir="s" state="M"/>
  <connection from="-14" to="-5" fromLane="0" toLane="0" via=":4_5_0" dir="l" state="m"/>
  <connection from="-16" to="32" fromLane="0" toLane="0" via=":4_0_0" dir="r" state="m"/>
  <connection from="-16" to="-5" fromLane="0" toLane="0" via=":4_1_0" dir="s" state="m"/>
  <connection from="-16" to="14" fromLane="0" toLane="0" via=":4_2_0" dir="s" state="m"/>
  <connection from="-3" to="7" fromLane="0" toLane="0" via=":1_9_0" dir="r" state="M"/>
  <connection from="-3" to="9" fromLane="0" toLane="0" via=":1_10_0" dir="s" state="M"/>
  <connection from="-3" to="5" fromLane="0" toLane="0" via=":1_11_0" dir="s" state="m"/>
  <connection from="-32" to="-5" fromLane="0" toLane="0" via=":4_9_0" dir="r" state="M"/>
  <connection from="-32" to="14" fromLane="0" toLane="0" via=":4_10_0" dir="s" state="M"/>
  <connection from="-32" to="16" fromLane="0" toLane="0" via=":4_11_0" dir="l" state="m"/>
  <connection from="-33" to="-7" fromLane="0" toLane="0" via=":6_0_0" dir="r" state="m"/>
  <connection from="-33" to="37" fromLane="0" toLane="0" via=":6_1_0" dir="s" state="m"/>
  <connection from="-37" to="33" fromLane="0" toLane="0" via=":6_2_0" dir="s" state="M"/>
  <connection from="-37" to="-7" fromLane="0" toLane="0" via=":6_3_0" dir="s" state="M"/>
  <connection from="-5" to="3" fromLane="0" toLane="0" via=":1_0_0" dir="s" state="m"/>
  <connection from="-5" to="7" fromLane="0" toLane="0" via=":1_1_0" dir="L" state="m"/>
  <connection from="-5" to="9" fromLane="0" toLane="0" via=":1_2_0" dir="l" state="m"/>
  <connection from="-7" to="9" fromLane="0" toLane="0" via=":1_6_0" dir="r" state="m"/>
  <connection from="-7" to="5" fromLane="0" toLane="0" via=":1_7_0" dir="R" state="m"/>
  <connection from="-7" to="3" fromLane="0" toLane="0" via=":1_8_0" dir="l" state="m"/>
  <connection from="-9" to="5" fromLane="0" toLane="0" via=":1_3_0" dir="r" state="M"/>
  <connection from="-9" to="3" fromLane="0" toLane="0" via=":1_4_0" dir="s" state="M"/>
  <connection from="-9" to="7" fromLane="0" toLane="0" via=":1_5_0" dir="l" state="m"/>
  <connection from="14" to="-9" fromLane="0" toLane="0" via=":8_4_0" dir="r" state="M"/>
  <connection from="14" to="-33" fromLane="0" toLane="0" via=":8_5_0" dir="R" state="M"/>
  <connection from="3" to="11" fromLane="0" toLane="0" via=":2_0_0" dir="s" state="M"/>
  <connection from="3" to="13" fromLane="0" toLane="0" via=":2_1_0" dir="s" state="m"/>
  <connection from="33" to="-14" fromLane="0" toLane="0" via=":8_0_0" dir="L" state="M"/>
  <connection from="33" to="-9" fromLane="0" toLane="0" via=":8_1_0" dir="l" state="m"/>
  <connection from="5" to="14" fromLane="0" toLane="0" via=":4_6_0" dir="r" state="m"/>
  <connection from="5" to="16" fromLane="0" toLane="0" via=":4_7_0" dir="s" state="m"/>
  <connection from="5" to="32" fromLane="0" toLane="0" via=":4_8_0" dir="l" state="m"/>
  <connection from="7" to="37" fromLane="0" toLane="0" via=":6_4_0" dir="s" state="M"/>
  <connection from="7" to="33" fromLane="0" toLane="0" via=":6_5_0" dir="l" state="m"/>
  <connection from="9" to="-33" fromLane="0" toLane="0" via=":8_2_0" dir="r" state="m"/>
  <connection from="9" to="-14" fromLane="0" toLane="0" via=":8_3_0" dir="l" state="m"/>

  <connection from=":1_0" to="3" fromLane="0" toLane="0" dir="s" state="M"/>
  <connection from=":1_1" to="7" fromLane="0" toLane="0" dir="s" state="M"/>
  <connection from=":1_2" to="9" fromLane="0" toLane="0" dir="s" state="M"/>
  <connection from=":1_3" to="5" fromLane="0" toLane="0" dir="s" state="M"/>
  <connection from=":1_4" to="3" fromLane="0" toLane="0" dir="s" state="M"/>
  <connection from=":1_5" to="7" fromLane="0" toLane="0" via=":1_12_0" dir="s" state="M"/>
  <connection from=":1_12" to="7" fromLane="0" toLane="0" dir="s" state="M"/>
  <connection from=":1_6" to="9" fromLane="0" toLane="0" dir="s" state="M"/>
  <connection from=":1_7" to="5" fromLane="0" toLane="0" dir="s" state="M"/>
  <connection from=":1_8" to="3" fromLane="0" toLane="0" dir="s" state="M"/>
  <connection from=":1_9" to="7" fromLane="0" toLane="0" dir="s" state="M"/>
  <connection from=":1_10" to="9" fromLane="0" toLane="0" dir="s" state="M"/>
  <connection from=":1_11" to="5" fromLane="0" toLane="0" dir="s" state="M"/>
  <connection from=":2_0" to="11" fromLane="0" toLane="0" dir="s" state="M"/>
  <connection from=":2_1" to="13" fromLane="0" toLane="0" dir="s" state="M"/>
  <connection from=":2_2" to="-3" fromLane="0" toLane="0" dir="s" state="M"/>
  <connection from=":2_3" to="11" fromLane="0" toLane="0" dir="s" state="M"/>
  <connection from=":2_4" to="13" fromLane="0" toLane="0" dir="s" state="M"/>
  <connection from=":2_5" to="-3" fromLane="0" toLane="0" dir="s" state="M"/>
  <connection from=":4_0" to="32" fromLane="0" toLane="0" dir="s" state="M"/>
  <connection from=":4_1" to="-5" fromLane="0" toLane="0" dir="s" state="M"/>
  <connection from=":4_2" to="14" fromLane="0" toLane="0" dir="s" state="M"/>
  <connection from=":4_3" to="16" fromLane="0" toLane="0" dir="s" state="M"/>
  <connection from=":4_4" to="32" fromLane="0" toLane="0" dir="s" state="M"/>
  <connection from=":4_5" to="-5" fromLane="0" toLane="0" via=":4_12_0" dir="s" state="M"/>
  <connection from=":4_12" to="-5" fromLane="0" toLane="0" dir="s" state="M"/>
  <connection from=":4_6" to="14" fromLane="0" toLane="0" dir="s" state="M"/>
  <connection from=":4_7" to="16" fromLane="0" toLane="0" dir="s" state="M"/>
  <connection from=":4_8" to="32" fromLane="0" toLane="0" dir="s" state="M"/>
  <connection from=":4_9" to="-5" fromLane="0" toLane="0" dir="s" state="M"/>
  <connection from=":4_10" to="14" fromLane="0" toLane="0" dir="s" state="M"/>
  <connection from=":4_11" to="16" fromLane="0" toLane="0" via=":4_13_0" dir="s" state="M"/>
  <connection from=":4_13" to="16" fromLane="0" toLane="0" dir="s" state="M"/>
  <connection from=":6_0" to="-7" fromLane="0" toLane="0" dir="s" state="M"/>
  <connection from=":6_1" to="37" fromLane="0" toLane="0" dir="s" state="M"/>
  <connection from=":6_2" to="33" fromLane="0" toLane="0" dir="s" state="M"/>
  <connection from=":6_3" to="-7" fromLane="0" toLane="0" dir="s" state="M"/>
  <connection from=":6_4" to="37" fromLane="0" toLane="0" dir="s" state="M"/>
  <connection from=":6_5" to="33" fromLane="0" toLane="0" via=":6_6_0" dir="s" state="M"/>
  <connection from=":6_6" to="33" fromLane="0" toLane="0" dir="s" state="M"/>
  <connection from=":8_0" to="-14" fromLane="0" toLane="0" dir="s" state="M"/>
  <connection from=":8_1" to="-9" fromLane="0" toLane="0" via=":8_6_0" dir="s" state="M"/>
  <connection from=":8_6" to="-9" fromLane="0" toLane="0" dir="s" state="M"/>
  <connection from=":8_2" to="-33" fromLane="0" toLane="0" dir="s" state="M"/>
  <connection from=":8_3" to="-14" fromLane="0" toLane="0" dir="s" state="M"/>
  <connection from=":8_4" to="-9" fromLane="0" toLane="0" dir="s" state="M"/>
  <connection from=":8_5" to="-33" fromLane="0" toLane="0" dir="s" state="M"/>

</net>
