<configuration>
    <input>
        <net-file value="random.net.xml"/>
        <route-files value="random.rou.xml"/>
        <gui-settings-file value="random.settings.xml"/>
    </input>

    <traci_server>
        <remote-port value="8813"/>
    </traci_server>
</configuration>